CLB
     RDKit          3D

 45 46  0  0  0  0  0  0  0  0999 V2000
   -2.4095    2.8968    0.9472 O   0  0  0  0  0  0  0  0  0  0  0  0
   -2.9874    1.6945    1.3298 C   0  0  0  0  0  0  0  0  0  0  0  0
   -1.9272    0.6318    1.3784 C   0  0  1  0  0  0  0  0  0  0  0  0
   -2.3422   -0.6116    1.7404 O   0  0  0  0  0  0  0  0  0  0  0  0
   -3.2138   -1.2456    0.9098 C   0  0  1  0  0  0  0  0  0  0  0  0
   -4.5106   -0.8606    1.3185 O   0  0  0  0  0  0  0  0  0  0  0  0
   -3.0284   -1.0419   -0.5415 C   0  0  2  0  0  0  0  0  0  0  0  0
   -2.7141   -2.2902   -1.1302 O   0  0  0  0  0  0  0  0  0  0  0  0
   -2.0754   -0.0091   -0.9771 C   0  0  1  0  0  0  0  0  0  0  0  0
   -2.7082    1.0514   -1.6379 O   0  0  0  0  0  0  0  0  0  0  0  0
   -1.1449    0.5156    0.0903 C   0  0  2  0  0  0  0  0  0  0  0  0
   -0.1622   -0.3800    0.2488 O   0  0  0  0  0  0  0  0  0  0  0  0
    1.1367   -0.0642    0.0522 C   0  0  2  0  0  0  0  0  0  0  0  0
    1.9254   -0.8685   -0.8915 C   0  0  1  0  0  0  0  0  0  0  0  0
    1.9286   -0.1724   -2.2478 C   0  0  0  0  0  0  0  0  0  0  0  0
    2.5605   -1.0572   -3.1348 O   0  0  0  0  0  0  0  0  0  0  0  0
    3.2520   -1.0912   -0.5637 O   0  0  0  0  0  0  0  0  0  0  0  0
    3.9029   -0.1284    0.1285 C   0  0  1  0  0  0  0  0  0  0  0  0
    4.4648    0.8740   -0.6896 O   0  0  0  0  0  0  0  0  0  0  0  0
    3.1621    0.5263    1.2384 C   0  0  2  0  0  0  0  0  0  0  0  0
    3.8164    0.5047    2.4548 O   0  0  0  0  0  0  0  0  0  0  0  0
    1.8176   -0.1108    1.4080 C   0  0  2  0  0  0  0  0  0  0  0  0
    1.9585   -1.4428    1.7987 O   0  0  0  0  0  0  0  0  0  0  0  0
   -2.8458    3.1872    0.1100 H   0  0  0  0  0  0  0  0  0  0  0  0
   -3.3431    1.8404    2.3707 H   0  0  0  0  0  0  0  0  0  0  0  0
   -3.8659    1.4080    0.7288 H   0  0  0  0  0  0  0  0  0  0  0  0
   -1.1768    0.9566    2.1508 H   0  0  0  0  0  0  0  0  0  0  0  0
   -3.1720   -2.3292    1.1902 H   0  0  0  0  0  0  0  0  0  0  0  0
   -4.5628   -0.9040    2.3163 H   0  0  0  0  0  0  0  0  0  0  0  0
   -4.0339   -0.8097   -1.0007 H   0  0  0  0  0  0  0  0  0  0  0  0
   -1.9937   -2.1796   -1.8104 H   0  0  0  0  0  0  0  0  0  0  0  0
   -1.3926   -0.4318   -1.7722 H   0  0  0  0  0  0  0  0  0  0  0  0
   -3.0851    0.6918   -2.4926 H   0  0  0  0  0  0  0  0  0  0  0  0
   -0.8700    1.5363   -0.2097 H   0  0  0  0  0  0  0  0  0  0  0  0
    1.1805    1.0225   -0.2460 H   0  0  0  0  0  0  0  0  0  0  0  0
    1.5041   -1.8897   -1.0061 H   0  0  0  0  0  0  0  0  0  0  0  0
    2.5440    0.7350   -2.2427 H   0  0  0  0  0  0  0  0  0  0  0  0
    0.9157    0.1258   -2.5783 H   0  0  0  0  0  0  0  0  0  0  0  0
    3.2840   -0.6338   -3.6486 H   0  0  0  0  0  0  0  0  0  0  0  0
    4.7974   -0.6132    0.5947 H   0  0  0  0  0  0  0  0  0  0  0  0
    5.2489    0.4791   -1.1788 H   0  0  0  0  0  0  0  0  0  0  0  0
    2.9577    1.6118    1.0055 H   0  0  0  0  0  0  0  0  0  0  0  0
    3.1934    0.2947    3.2007 H   0  0  0  0  0  0  0  0  0  0  0  0
    1.1903    0.4216    2.1549 H   0  0  0  0  0  0  0  0  0  0  0  0
    2.8241   -1.8402    1.6086 H   0  0  0  0  0  0  0  0  0  0  0  0
  1  2  1  0
  2  3  1  0
  3  4  1  0
  4  5  1  0
  5  6  1  0
  5  7  1  0
  7  8  1  0
  7  9  1  0
  9 10  1  0
  9 11  1  0
 11 12  1  0
 12 13  1  0
 13 14  1  0
 14 15  1  0
 15 16  1  0
 14 17  1  0
 17 18  1  0
 18 19  1  0
 18 20  1  0
 20 21  1  0
 20 22  1  0
 22 23  1  0
 11  3  1  0
 22 13  1  0
  1 24  1  0
  2 25  1  0
  2 26  1  0
  3 27  1  1
  5 28  1  6
  6 29  1  0
  7 30  1  6
  8 31  1  0
  9 32  1  6
 10 33  1  0
 11 34  1  6
 13 35  1  6
 14 36  1  6
 15 37  1  0
 15 38  1  0
 16 39  1  0
 18 40  1  1
 19 41  1  0
 20 42  1  6
 21 43  1  0
 22 44  1  1
 23 45  1  0
M  END
$$$$
