CSO
     RDKit          3D

 69 71  0  0  0  0  0  0  0  0999 V2000
   -4.3009   -2.2778    0.2387 N   0  0  0  0  0  0  0  0  0  0  0  0
   -4.4850   -0.8273    0.0464 C   0  0  2  0  0  0  0  0  0  0  0  0
   -5.8288   -0.6557   -0.5593 C   0  0  1  0  0  0  0  0  0  0  0  0
   -6.8305   -0.8643    0.3850 O   0  0  0  0  0  0  0  0  0  0  0  0
   -5.9348    0.7283   -1.1795 C   0  0  2  0  0  0  0  0  0  0  0  0
   -7.1982    0.9878   -1.6982 O   0  0  0  0  0  0  0  0  0  0  0  0
   -4.8187    0.9287   -2.1825 C   0  0  1  0  0  0  0  0  0  0  0  0
   -4.2323    2.3003   -1.9730 C   0  0  0  0  0  0  0  0  0  0  0  0
   -5.2363    3.2917   -2.0552 O   0  0  0  0  0  0  0  0  0  0  0  0
   -3.8888   -0.1005   -2.1151 O   0  0  0  0  0  0  0  0  0  0  0  0
   -3.3966   -0.3300   -0.8656 C   0  0  2  0  0  0  0  0  0  0  0  0
   -2.4200   -1.2988   -0.9271 O   0  0  0  0  0  0  0  0  0  0  0  0
   -1.1998   -1.0369   -0.4350 C   0  0  1  0  0  0  0  0  0  0  0  0
   -0.8168   -1.8258    0.7945 C   0  0  2  0  0  0  0  0  0  0  0  0
   -1.7054   -1.3722    1.8015 O   0  0  0  0  0  0  0  0  0  0  0  0
    0.6021   -1.7028    1.1973 C   0  0  1  0  0  0  0  0  0  0  0  0
    1.1769   -3.0146    1.5515 N   0  0  0  0  0  0  0  0  0  0  0  0
    1.5424   -0.9942    0.3020 C   0  0  1  0  0  0  0  0  0  0  0  0
    0.9720   -0.3729   -0.7919 O   0  0  0  0  0  0  0  0  0  0  0  0
   -0.0327   -1.1361   -1.3800 C   0  0  2  0  0  0  0  0  0  0  0  0
   -0.3589   -0.5000   -2.7079 C   0  0  0  0  0  0  0  0  0  0  0  0
   -1.3273   -1.1439   -3.4337 O   0  0  0  0  0  0  0  0  0  0  0  0
    2.2890   -0.0253    0.9631 O   0  0  0  0  0  0  0  0  0  0  0  0
    3.6537   -0.2724    0.8708 C   0  0  1  0  0  0  0  0  0  0  0  0
    4.3627    0.8063    0.0772 C   0  0  2  0  0  0  0  0  0  0  0  0
    4.3605    0.5249   -1.3008 O   0  0  0  0  0  0  0  0  0  0  0  0
    5.8147    0.7955    0.4980 C   0  0  1  0  0  0  0  0  0  0  0  0
    6.6121    1.7063   -0.3020 N   0  0  0  0  0  0  0  0  0  0  0  0
    5.8619    1.2787    1.9327 C   0  0  2  0  0  0  0  0  0  0  0  0
    7.1559    1.0957    2.4134 O   0  0  0  0  0  0  0  0  0  0  0  0
    4.8347    0.5346    2.7170 C   0  0  1  0  0  0  0  0  0  0  0  0
    3.8635    1.5206    3.3261 C   0  0  0  0  0  0  0  0  0  0  0  0
    4.6715    2.5211    3.9150 O   0  0  0  0  0  0  0  0  0  0  0  0
    4.2396   -0.5223    2.0923 O   0  0  0  0  0  0  0  0  0  0  0  0
   -4.9126   -2.6218    0.9894 H   0  0  0  0  0  0  0  0  0  0  0  0
   -4.3796   -2.7845   -0.6610 H   0  0  0  0  0  0  0  0  0  0  0  0
   -4.3970   -0.3533    1.0572 H   0  0  0  0  0  0  0  0  0  0  0  0
   -5.9636   -1.4181   -1.3558 H   0  0  0  0  0  0  0  0  0  0  0  0
   -7.5582   -1.4226    0.0164 H   0  0  0  0  0  0  0  0  0  0  0  0
   -5.7688    1.4490   -0.3577 H   0  0  0  0  0  0  0  0  0  0  0  0
   -7.2036    1.2669   -2.6361 H   0  0  0  0  0  0  0  0  0  0  0  0
   -5.2742    0.9019   -3.1883 H   0  0  0  0  0  0  0  0  0  0  0  0
   -3.7926    2.4265   -0.9654 H   0  0  0  0  0  0  0  0  0  0  0  0
   -3.5002    2.4935   -2.7812 H   0  0  0  0  0  0  0  0  0  0  0  0
   -5.0488    4.0650   -1.4688 H   0  0  0  0  0  0  0  0  0  0  0  0
   -3.0381    0.6163   -0.3990 H   0  0  0  0  0  0  0  0  0  0  0  0
   -1.2292    0.0308   -0.0639 H   0  0  0  0  0  0  0  0  0  0  0  0
   -1.0631   -2.9054    0.7167 H   0  0  0  0  0  0  0  0  0  0  0  0
   -1.5885   -1.9693    2.5914 H   0  0  0  0  0  0  0  0  0  0  0  0
    0.6138   -1.1540    2.1867 H   0  0  0  0  0  0  0  0  0  0  0  0
    2.2152   -2.9476    1.6288 H   0  0  0  0  0  0  0  0  0  0  0  0
    0.9279   -3.7111    0.7939 H   0  0  0  0  0  0  0  0  0  0  0  0
    2.2685   -1.7172   -0.1257 H   0  0  0  0  0  0  0  0  0  0  0  0
    0.2848   -2.1864   -1.5381 H   0  0  0  0  0  0  0  0  0  0  0  0
   -0.5462    0.5809   -2.6067 H   0  0  0  0  0  0  0  0  0  0  0  0
    0.5890   -0.5673   -3.3123 H   0  0  0  0  0  0  0  0  0  0  0  0
   -1.1091   -2.0772   -3.5772 H   0  0  0  0  0  0  0  0  0  0  0  0
    3.7785   -1.2011    0.2770 H   0  0  0  0  0  0  0  0  0  0  0  0
    3.9206    1.7973    0.2058 H   0  0  0  0  0  0  0  0  0  0  0  0
    3.5842    0.9115   -1.7676 H   0  0  0  0  0  0  0  0  0  0  0  0
    6.2227   -0.2290    0.4686 H   0  0  0  0  0  0  0  0  0  0  0  0
    6.6369    1.3604   -1.2789 H   0  0  0  0  0  0  0  0  0  0  0  0
    7.5480    1.7958    0.1294 H   0  0  0  0  0  0  0  0  0  0  0  0
    5.6815    2.3899    1.9821 H   0  0  0  0  0  0  0  0  0  0  0  0
    7.6999    1.8811    2.2304 H   0  0  0  0  0  0  0  0  0  0  0  0
    5.3838    0.0992    3.6047 H   0  0  0  0  0  0  0  0  0  0  0  0
    3.2136    2.0314    2.6155 H   0  0  0  0  0  0  0  0  0  0  0  0
    3.3273    1.0028    4.1420 H   0  0  0  0  0  0  0  0  0  0  0  0
    4.4754    3.4189    3.5552 H   0  0  0  0  0  0  0  0  0  0  0  0
  1  2  1  0
  2  3  1  0
  3  4  1  0
  3  5  1  0
  5  6  1  0
  5  7  1  0
  7  8  1  0
  8  9  1  0
  7 10  1  0
 10 11  1  0
 11 12  1  0
 12 13  1  0
 13 14  1  0
 14 15  1  0
 14 16  1  0
 16 17  1  0
 16 18  1  0
 18 19  1  0
 19 20  1  0
 20 21  1  0
 21 22  1  0
 18 23  1  0
 23 24  1  0
 24 25  1  0
 25 26  1  0
 25 27  1  0
 27 28  1  0
 27 29  1  0
 29 30  1  0
 29 31  1  0
 31 32  1  0
 32 33  1  0
 31 34  1  0
 11  2  1  0
 20 13  1  0
 34 24  1  0
  1 35  1  0
  1 36  1  0
  2 37  1  1
  3 38  1  6
  4 39  1  0
  5 40  1  1
  6 41  1  0
  7 42  1  6
  8 43  1  0
  8 44  1  0
  9 45  1  0
 11 46  1  1
 13 47  1  1
 14 48  1  6
 15 49  1  0
 16 50  1  1
 17 51  1  0
 17 52  1  0
 18 53  1  6
 20 54  1  6
 21 55  1  0
 21 56  1  0
 22 57  1  0
 24 58  1  6
 25 59  1  6
 26 60  1  0
 27 61  1  1
 28 62  1  0
 28 63  1  0
 29 64  1  6
 30 65  1  0
 31 66  1  1
 32 67  1  0
 32 68  1  0
 33 69  1  0
M  END
$$$$
