FAD
     RDKit          3D

 86 91  0  0  0  0  0  0  0  0999 V2000
   -8.9190   -0.6170    0.7890 P   0  0  0  0  0  5  0  0  0  0  0  0
   -8.7490    0.6940    0.0920 O   0  0  0  0  0  0  0  0  0  0  0  0
   -8.5800   -1.8430   -0.0020 O   0  0  0  0  0  0  0  0  0  0  0  0
  -10.4410   -0.7940    1.2480 O   0  0  0  0  0  0  0  0  0  0  0  0
  -11.2170    0.2400    1.7540 C   0  0  0  0  0  0  0  0  0  0  0  0
  -12.6390    0.0900    1.2000 C   0  0  1  0  0  0  0  0  0  0  0  0
  -13.5240    0.8880    1.9510 O   0  0  0  0  0  0  0  0  0  0  0  0
  -12.7430    0.5670   -0.2560 C   0  0  1  0  0  0  0  0  0  0  0  0
  -13.3770   -0.4170   -1.0450 O   0  0  0  0  0  0  0  0  0  0  0  0
  -13.5560    1.8470   -0.1590 C   0  0  1  0  0  0  0  0  0  0  0  0
  -14.3500    2.1180   -1.3020 O   0  0  0  0  0  0  0  0  0  0  0  0
  -14.3920    1.5700    1.0640 C   0  0  2  0  0  0  0  0  0  0  0  0
  -14.8860    2.7600    1.7490 N   0  0  0  0  0  0  0  0  0  0  0  0
  -14.2000    3.8860    2.0620 C   0  0  0  0  0  0  0  0  0  0  0  0
  -14.9640    4.7330    2.7500 N   0  0  0  0  0  0  0  0  0  0  0  0
  -16.1670    4.1470    2.8890 C   0  0  0  0  0  0  0  0  0  0  0  0
  -17.3890    4.5250    3.5120 C   0  0  0  0  0  0  0  0  0  0  0  0
  -17.5180    5.7130    4.1580 N   0  0  0  0  0  0  0  0  0  0  0  0
  -18.4280    3.6770    3.4640 N   0  0  0  0  0  0  0  0  0  0  0  0
  -18.3310    2.4700    2.8260 C   0  0  0  0  0  0  0  0  0  0  0  0
  -17.1890    2.0660    2.2180 N   0  0  0  0  0  0  0  0  0  0  0  0
  -16.1260    2.8900    2.2550 C   0  0  0  0  0  0  0  0  0  0  0  0
    0.0150   -3.1230   -2.4370 N   0  0  0  0  0  0  0  0  0  0  0  0
    0.5940   -4.3090   -2.7710 C   0  0  0  0  0  0  0  0  0  0  0  0
    0.6320   -5.2210   -1.9600 O   0  0  0  0  0  0  0  0  0  0  0  0
    1.1280   -4.4990   -4.0170 N   0  0  0  0  0  0  0  0  0  0  0  0
    1.1190   -3.5280   -4.9590 C   0  0  0  0  0  0  0  0  0  0  0  0
    1.6100   -3.7500   -6.0740 O   0  0  0  0  0  0  0  0  0  0  0  0
    0.5160   -2.2870   -4.6290 C   0  0  0  0  0  0  0  0  0  0  0  0
    0.4350   -1.2850   -5.5500 N   0  0  0  0  0  0  0  0  0  0  0  0
   -0.3220   -0.1720   -5.2790 C   0  0  0  0  0  0  0  0  0  0  0  0
   -0.5420    0.7620   -6.2840 C   0  0  0  0  0  0  0  0  0  0  0  0
   -1.3700    1.8470   -6.0780 C   0  0  0  0  0  0  0  0  0  0  0  0
   -1.6120    2.8260   -7.1990 C   0  0  0  0  0  0  0  0  0  0  0  0
   -2.0050    2.0100   -4.8150 C   0  0  0  0  0  0  0  0  0  0  0  0
   -2.9400    3.1730   -4.5710 C   0  0  0  0  0  0  0  0  0  0  0  0
   -1.7700    1.0850   -3.7860 C   0  0  0  0  0  0  0  0  0  0  0  0
   -0.9280   -0.0040   -4.0010 C   0  0  0  0  0  0  0  0  0  0  0  0
   -0.7010   -0.9630   -3.0060 N   0  0  0  0  0  0  0  0  0  0  0  0
   -0.0490   -2.1310   -3.3410 C   0  0  0  0  0  0  0  0  0  0  0  0
   -1.1960   -0.7730   -1.6400 C   0  0  0  0  0  0  0  0  0  0  0  0
   -2.3740   -1.6700   -1.2970 C   0  0  2  0  0  0  0  0  0  0  0  0
   -3.1400   -1.9590   -2.4510 O   0  0  0  0  0  0  0  0  0  0  0  0
   -3.2260   -1.0370   -0.2240 C   0  0  2  0  0  0  0  0  0  0  0  0
   -2.4100   -0.6780    0.8690 O   0  0  0  0  0  0  0  0  0  0  0  0
   -4.3250   -1.9570    0.2920 C   0  0  2  0  0  0  0  0  0  0  0  0
   -5.1110   -2.4450   -0.7840 O   0  0  0  0  0  0  0  0  0  0  0  0
   -5.2230   -1.2390    1.2740 C   0  0  0  0  0  0  0  0  0  0  0  0
   -6.1700   -2.1390    1.8150 O   0  0  0  0  0  0  0  0  0  0  0  0
   -7.2260   -1.6630    2.8920 P   0  0  0  0  0  5  0  0  0  0  0  0
   -8.0600   -2.8410    3.2560 O   0  0  0  0  0  0  0  0  0  0  0  0
   -6.5120   -0.9580    4.0000 O   0  0  0  0  0  0  0  0  0  0  0  0
   -8.0900   -0.5410    2.1480 O   0  0  0  0  0  0  0  0  0  0  0  0
   -8.6555    1.4152    0.7637 H   0  0  0  0  0  0  0  0  0  0  0  0
  -11.2381    0.1861    2.8525 H   0  0  0  0  0  0  0  0  0  0  0  0
  -10.7948    1.2113    1.4568 H   0  0  0  0  0  0  0  0  0  0  0  0
  -12.8925   -0.9788    1.2588 H   0  0  0  0  0  0  0  0  0  0  0  0
  -11.7695    0.7426   -0.7372 H   0  0  0  0  0  0  0  0  0  0  0  0
  -13.8078   -1.0856   -0.4555 H   0  0  0  0  0  0  0  0  0  0  0  0
  -12.9298    2.7491   -0.0958 H   0  0  0  0  0  0  0  0  0  0  0  0
  -15.2469    2.4241   -1.0157 H   0  0  0  0  0  0  0  0  0  0  0  0
  -15.2879    1.0106    0.7568 H   0  0  0  0  0  0  0  0  0  0  0  0
  -13.1524    4.0752    1.7850 H   0  0  0  0  0  0  0  0  0  0  0  0
  -18.4134    5.9637    4.6012 H   0  0  0  0  0  0  0  0  0  0  0  0
  -16.7205    6.3631    4.2046 H   0  0  0  0  0  0  0  0  0  0  0  0
  -19.2081    1.8065    2.8060 H   0  0  0  0  0  0  0  0  0  0  0  0
    1.5502   -5.4105   -4.2447 H   0  0  0  0  0  0  0  0  0  0  0  0
   -0.0487    0.6348   -7.2589 H   0  0  0  0  0  0  0  0  0  0  0  0
   -1.8559    3.8125   -6.7780 H   0  0  0  0  0  0  0  0  0  0  0  0
   -0.7064    2.9053   -7.8184 H   0  0  0  0  0  0  0  0  0  0  0  0
   -2.4502    2.4743   -7.8184 H   0  0  0  0  0  0  0  0  0  0  0  0
   -3.0619    3.3246   -3.4883 H   0  0  0  0  0  0  0  0  0  0  0  0
   -2.5192    4.0830   -5.0236 H   0  0  0  0  0  0  0  0  0  0  0  0
   -3.9191    2.9575   -5.0236 H   0  0  0  0  0  0  0  0  0  0  0  0
   -2.2521    1.2202   -2.8066 H   0  0  0  0  0  0  0  0  0  0  0  0
   -0.3767   -0.9892   -0.9386 H   0  0  0  0  0  0  0  0  0  0  0  0
   -1.5451    0.2672   -1.5618 H   0  0  0  0  0  0  0  0  0  0  0  0
   -1.9832   -2.6213   -0.9068 H   0  0  0  0  0  0  0  0  0  0  0  0
   -4.0309   -2.2951   -2.1801 H   0  0  0  0  0  0  0  0  0  0  0  0
   -3.7066   -0.1605   -0.6831 H   0  0  0  0  0  0  0  0  0  0  0  0
   -2.8811   -0.8853    1.7147 H   0  0  0  0  0  0  0  0  0  0  0  0
   -3.8366   -2.7988    0.8046 H   0  0  0  0  0  0  0  0  0  0  0  0
   -5.8951   -2.9318   -0.4257 H   0  0  0  0  0  0  0  0  0  0  0  0
   -4.6118   -0.8215    2.0877 H   0  0  0  0  0  0  0  0  0  0  0  0
   -5.7536   -0.4297    0.7510 H   0  0  0  0  0  0  0  0  0  0  0  0
   -8.1130   -2.9159    4.2417 H   0  0  0  0  0  0  0  0  0  0  0  0
  2  1  1  0
  3  1  2  0
  4  1  1  0
  5  4  1  0
  6  5  1  0
  7  6  1  0
  8  6  1  0
  9  8  1  0
 10  8  1  0
 11 10  1  0
 12 10  1  0
 12  7  1  0
 13 12  1  0
 14 13  1  0
 15 14  2  0
 16 15  1  0
 17 16  2  0
 18 17  1  0
 19 17  1  0
 20 19  2  0
 21 20  1  0
 22 21  2  0
 22 16  1  0
 22 13  1  0
 24 23  1  0
 25 24  2  0
 26 24  1  0
 27 26  1  0
 28 27  2  0
 29 27  1  0
 30 29  2  0
 31 30  1  0
 32 31  2  0
 33 32  1  0
 34 33  1  0
 35 33  2  0
 36 35  1  0
 37 35  1  0
 38 37  2  0
 38 31  1  0
 39 38  1  0
 40 39  1  0
 40 29  1  0
 40 23  2  0
 41 39  1  0
 42 41  1  0
 43 42  1  0
 44 42  1  0
 45 44  1  0
 46 44  1  0
 47 46  1  0
 48 46  1  0
 49 48  1  0
 50 49  1  0
 51 50  1  0
 52 50  2  0
 53 50  1  0
 53  1  1  0
  2 54  1  0
  5 55  1  0
  5 56  1  0
  6 57  1  6
  8 58  1  6
  9 59  1  0
 10 60  1  1
 11 61  1  0
 12 62  1  6
 14 63  1  0
 18 64  1  0
 18 65  1  0
 20 66  1  0
 26 67  1  0
 32 68  1  0
 34 69  1  0
 34 70  1  0
 34 71  1  0
 36 72  1  0
 36 73  1  0
 36 74  1  0
 37 75  1  0
 41 76  1  0
 41 77  1  0
 42 78  1  1
 43 79  1  0
 44 80  1  6
 45 81  1  0
 46 82  1  1
 47 83  1  0
 48 84  1  0
 48 85  1  0
 51 86  1  0
M  END
$$$$
