GEN
     RDKit          3D

 27 28  0  0  0  0  0  0  0  0999 V2000
    4.8302   -0.0677    0.0141 C   0  0  0  0  0  0  0  0  0  0  0  0
    3.5667   -0.4252   -0.5358 O   0  0  0  0  0  0  0  0  0  0  0  0
    2.4014   -0.1695    0.1864 C   0  0  0  0  0  0  0  0  0  0  0  0
    2.5554    0.3849    1.3263 O   0  0  0  0  0  0  0  0  0  0  0  0
    1.0761   -0.5090   -0.3159 C   0  0  0  0  0  0  0  0  0  0  0  0
    0.8369   -1.0944   -1.5073 C   0  0  0  0  0  0  0  0  0  0  0  0
   -0.5721   -1.2226   -1.5562 O   0  0  0  0  0  0  0  0  0  0  0  0
   -1.0056   -0.0821   -0.9490 C   0  0  2  0  0  0  0  0  0  0  0  0
   -0.1783   -0.2984    0.3533 C   0  0  2  0  0  0  0  0  0  0  0  0
   -0.5838    0.9698    0.9575 C   0  0  2  0  0  0  0  0  0  0  0  0
   -0.2273    0.9992    2.2934 O   0  0  0  0  0  0  0  0  0  0  0  0
   -2.0904    0.7767    0.8473 C   0  0  0  0  0  0  0  0  0  0  0  0
   -2.2718    0.1306   -0.3355 C   0  0  0  0  0  0  0  0  0  0  0  0
   -3.6270   -0.2539   -0.8284 C   0  0  0  0  0  0  0  0  0  0  0  0
   -4.5847    0.1461    0.0847 O   0  0  0  0  0  0  0  0  0  0  0  0
    4.7341    0.4862    0.9618 H   0  0  0  0  0  0  0  0  0  0  0  0
    5.3458   -1.0278    0.2547 H   0  0  0  0  0  0  0  0  0  0  0  0
    5.4248    0.5815   -0.6674 H   0  0  0  0  0  0  0  0  0  0  0  0
    1.5607   -1.3976   -2.2561 H   0  0  0  0  0  0  0  0  0  0  0  0
   -0.5965    0.8558   -1.3790 H   0  0  0  0  0  0  0  0  0  0  0  0
   -0.6292   -1.1980    0.8212 H   0  0  0  0  0  0  0  0  0  0  0  0
   -0.2444    1.8205    0.3730 H   0  0  0  0  0  0  0  0  0  0  0  0
   -0.8887    0.5361    2.8703 H   0  0  0  0  0  0  0  0  0  0  0  0
   -2.8453    1.0865    1.5554 H   0  0  0  0  0  0  0  0  0  0  0  0
   -3.8369    0.2286   -1.8200 H   0  0  0  0  0  0  0  0  0  0  0  0
   -3.6971   -1.3444   -0.9942 H   0  0  0  0  0  0  0  0  0  0  0  0
   -4.4532    1.1306    0.2454 H   0  0  0  0  0  0  0  0  0  0  0  0
  1  2  1  0
  2  3  1  0
  3  4  2  0
  3  5  1  0
  5  6  2  0
  6  7  1  0
  7  8  1  0
  8  9  1  0
  9 10  1  0
 10 11  1  0
 10 12  1  0
 12 13  2  0
 13 14  1  0
 14 15  1  0
  9  5  1  0
 13  8  1  0
  1 16  1  0
  1 17  1  0
  1 18  1  0
  6 19  1  0
  8 20  1  6
  9 21  1  1
 10 22  1  6
 11 23  1  0
 12 24  1  0
 14 25  1  0
 14 26  1  0
 15 27  1  0
M  END
$$$$
