GEN
     RDKit          3D

 30 31  0  0  0  0  0  0  0  0999 V2000
    4.7949    0.4029   -0.0258 C   0  0  0  0  0  0  0  0  0  0  0  0
    3.5289   -0.1926   -0.2424 O   0  0  0  0  0  0  0  0  0  0  0  0
    2.3967    0.2167    0.4851 C   0  0  0  0  0  0  0  0  0  0  0  0
    2.6087    1.1378    1.3246 O   0  0  0  0  0  0  0  0  0  0  0  0
    1.0855   -0.3839    0.2766 C   0  0  0  0  0  0  0  0  0  0  0  0
    0.9940   -1.3406   -0.6316 C   0  0  0  0  0  0  0  0  0  0  0  0
   -0.2403   -1.9396   -0.8604 O   0  0  0  0  0  0  0  0  0  0  0  0
   -1.3039   -1.8272    0.0591 C   0  0  2  0  0  0  0  0  0  0  0  0
   -1.3667   -0.4802    0.7178 C   0  0  1  0  0  0  0  0  0  0  0  0
   -0.0401    0.0969    1.0710 C   0  0  2  0  0  0  0  0  0  0  0  0
   -0.2114    1.5708    0.8559 C   0  0  0  0  0  0  0  0  0  0  0  0
   -1.3855    1.6675   -0.0358 C   0  0  0  0  0  0  0  0  0  0  0  0
   -2.0554    0.5342   -0.1349 C   0  0  0  0  0  0  0  0  0  0  0  0
   -3.2805    0.2145   -0.9200 C   0  0  0  0  0  0  0  0  0  0  0  0
   -3.7422    1.3138   -1.6360 O   0  0  0  0  0  0  0  0  0  0  0  0
   -1.1572   -2.8263    1.0215 O   0  0  0  0  0  0  0  0  0  0  0  0
    4.6850    1.1964    0.7653 H   0  0  0  0  0  0  0  0  0  0  0  0
    5.5173   -0.3514    0.3506 H   0  0  0  0  0  0  0  0  0  0  0  0
    5.1859    0.9417   -0.9224 H   0  0  0  0  0  0  0  0  0  0  0  0
    1.8731   -1.6458   -1.1836 H   0  0  0  0  0  0  0  0  0  0  0  0
   -2.2407   -2.0187   -0.4823 H   0  0  0  0  0  0  0  0  0  0  0  0
   -1.9631   -0.5857    1.6467 H   0  0  0  0  0  0  0  0  0  0  0  0
    0.2192   -0.0548    2.1558 H   0  0  0  0  0  0  0  0  0  0  0  0
    0.6737    2.0556    0.3988 H   0  0  0  0  0  0  0  0  0  0  0  0
   -0.5087    2.0589    1.8105 H   0  0  0  0  0  0  0  0  0  0  0  0
   -1.7078    2.5711   -0.5831 H   0  0  0  0  0  0  0  0  0  0  0  0
   -4.0885   -0.0948   -0.2369 H   0  0  0  0  0  0  0  0  0  0  0  0
   -3.0312   -0.5570   -1.6936 H   0  0  0  0  0  0  0  0  0  0  0  0
   -3.8581    2.0450   -0.9489 H   0  0  0  0  0  0  0  0  0  0  0  0
   -1.3816   -3.7255    0.6769 H   0  0  0  0  0  0  0  0  0  0  0  0
  1  2  1  0
  2  3  1  0
  3  4  2  0
  3  5  1  0
  5  6  2  0
  6  7  1  0
  7  8  1  0
  8  9  1  0
  9 10  1  0
 10 11  1  0
 11 12  1  0
 12 13  2  0
 13 14  1  0
 14 15  1  0
  8 16  1  0
 10  5  1  0
 13  9  1  0
  1 17  1  0
  1 18  1  0
  1 19  1  0
  6 20  1  0
  8 21  1  6
  9 22  1  1
 10 23  1  1
 11 24  1  0
 11 25  1  0
 12 26  1  0
 14 27  1  0
 14 28  1  0
 15 29  1  0
 16 30  1  0
M  END
$$$$
