PPY
     RDKit          3D

 42 46  0  0  0  0  0  0  0  0999 V2000
   -7.6965   -0.7254    1.5874 C   0  0  0  0  0  0  0  0  0  0  0  0
   -6.7716   -1.1813    2.5038 C   0  0  0  0  0  0  0  0  0  0  0  0
   -5.5020   -0.9445    1.9994 C   0  0  0  0  0  0  0  0  0  0  0  0
   -5.7089   -0.3451    0.7784 C   0  0  0  0  0  0  0  0  0  0  0  0
   -7.0209   -0.2136    0.5310 N   0  0  0  0  0  0  0  0  0  0  0  0
   -4.6335    0.0848   -0.1172 C   0  0  0  0  0  0  0  0  0  0  0  0
   -4.7925    0.6937   -1.3586 C   0  0  0  0  0  0  0  0  0  0  0  0
   -3.5394    0.9477   -1.8976 C   0  0  0  0  0  0  0  0  0  0  0  0
   -2.6210    0.4801   -0.9573 C   0  0  0  0  0  0  0  0  0  0  0  0
   -3.3129   -0.0291    0.0940 N   0  0  0  0  0  0  0  0  0  0  0  0
   -1.1604    0.5166   -1.0555 C   0  0  0  0  0  0  0  0  0  0  0  0
   -0.4703    1.0400   -2.1359 C   0  0  0  0  0  0  0  0  0  0  0  0
    0.8808    0.9056   -1.8831 C   0  0  0  0  0  0  0  0  0  0  0  0
    0.9675    0.2916   -0.6304 C   0  0  0  0  0  0  0  0  0  0  0  0
   -0.2668    0.0650   -0.1477 N   0  0  0  0  0  0  0  0  0  0  0  0
    2.2373   -0.0330    0.0120 C   0  0  0  0  0  0  0  0  0  0  0  0
    2.3991   -0.6365    1.2421 C   0  0  0  0  0  0  0  0  0  0  0  0
    3.7809   -0.7303    1.4113 C   0  0  0  0  0  0  0  0  0  0  0  0
    4.4235   -0.2018    0.3215 C   0  0  0  0  0  0  0  0  0  0  0  0
    3.4492    0.2193   -0.5229 N   0  0  0  0  0  0  0  0  0  0  0  0
    5.8483   -0.0970    0.0844 C   0  0  0  0  0  0  0  0  0  0  0  0
    6.4604    0.4393   -1.0209 C   0  0  0  0  0  0  0  0  0  0  0  0
    7.8326    0.3567   -0.8742 C   0  0  0  0  0  0  0  0  0  0  0  0
    8.0286   -0.2509    0.3636 C   0  0  0  0  0  0  0  0  0  0  0  0
    6.8206   -0.5121    0.9166 N   0  0  0  0  0  0  0  0  0  0  0  0
   -8.7559   -0.7835    1.7233 H   0  0  0  0  0  0  0  0  0  0  0  0
   -7.0090   -1.6472    3.4594 H   0  0  0  0  0  0  0  0  0  0  0  0
   -4.5585   -1.1928    2.4913 H   0  0  0  0  0  0  0  0  0  0  0  0
   -7.4380    0.2097   -0.3270 H   0  0  0  0  0  0  0  0  0  0  0  0
   -5.7415    0.9457   -1.8580 H   0  0  0  0  0  0  0  0  0  0  0  0
   -3.3068    1.4171   -2.8603 H   0  0  0  0  0  0  0  0  0  0  0  0
   -2.9177   -0.4628    0.9735 H   0  0  0  0  0  0  0  0  0  0  0  0
   -0.9271    1.4834   -3.0342 H   0  0  0  0  0  0  0  0  0  0  0  0
    1.6918    1.2152   -2.5287 H   0  0  0  0  0  0  0  0  0  0  0  0
   -0.4904   -0.3891    0.7834 H   0  0  0  0  0  0  0  0  0  0  0  0
    1.6430   -0.9744    1.9444 H   0  0  0  0  0  0  0  0  0  0  0  0
    4.2444   -1.1627    2.2869 H   0  0  0  0  0  0  0  0  0  0  0  0
    3.6724    0.6744   -1.4559 H   0  0  0  0  0  0  0  0  0  0  0  0
    5.9667    0.8666   -1.8857 H   0  0  0  0  0  0  0  0  0  0  0  0
    8.6009    0.6958   -1.5793 H   0  0  0  0  0  0  0  0  0  0  0  0
    9.0169   -0.4528    0.7603 H   0  0  0  0  0  0  0  0  0  0  0  0
    6.6767   -0.9740    1.8624 H   0  0  0  0  0  0  0  0  0  0  0  0
  1  2  2  0
  2  3  1  0
  3  4  2  0
  4  5  1  0
  4  6  1  0
  6  7  2  0
  7  8  1  0
  8  9  2  0
  9 10  1  0
  9 11  1  0
 11 12  2  0
 12 13  1  0
 13 14  2  0
 14 15  1  0
 14 16  1  0
 16 17  2  0
 17 18  1  0
 18 19  2  0
 19 20  1  0
 19 21  1  0
 21 22  2  0
 22 23  1  0
 23 24  2  0
 24 25  1  0
  5  1  1  0
 10  6  1  0
 15 11  1  0
 20 16  1  0
 25 21  1  0
  1 26  1  0
  2 27  1  0
  3 28  1  0
  5 29  1  0
  7 30  1  0
  8 31  1  0
 10 32  1  0
 12 33  1  0
 13 34  1  0
 15 35  1  0
 17 36  1  0
 18 37  1  0
 20 38  1  0
 22 39  1  0
 23 40  1  0
 24 41  1  0
 25 42  1  0
M  END
$$$$
