PPY
     RDKit          3D

 42 46  0  0  0  0  0  0  0  0999 V2000
    8.3052   -0.4804   -0.1424 C   0  0  0  0  0  0  0  0  0  0  0  0
    7.1625   -1.1715    0.1509 C   0  0  0  0  0  0  0  0  0  0  0  0
    6.1115   -0.3285   -0.1425 C   0  0  0  0  0  0  0  0  0  0  0  0
    6.5716    0.8446   -0.6015 N   0  0  0  0  0  0  0  0  0  0  0  0
    7.9207    0.7587   -0.6043 C   0  0  0  0  0  0  0  0  0  0  0  0
    4.7026   -0.6669    0.0234 C   0  0  0  0  0  0  0  0  0  0  0  0
    3.6230    0.1521   -0.2602 C   0  0  0  0  0  0  0  0  0  0  0  0
    2.4685   -0.5339    0.0315 C   0  0  0  0  0  0  0  0  0  0  0  0
    2.8181   -1.7506    0.4858 N   0  0  0  0  0  0  0  0  0  0  0  0
    4.1779   -1.8542    0.4895 C   0  0  0  0  0  0  0  0  0  0  0  0
    1.1024   -0.0478   -0.1178 C   0  0  0  0  0  0  0  0  0  0  0  0
   -0.0434   -0.7562    0.1822 C   0  0  0  0  0  0  0  0  0  0  0  0
   -1.0884    0.0713   -0.1057 C   0  0  0  0  0  0  0  0  0  0  0  0
   -0.5937    1.2366   -0.5627 N   0  0  0  0  0  0  0  0  0  0  0  0
    0.7487    1.2116   -0.5884 C   0  0  0  0  0  0  0  0  0  0  0  0
   -2.5160   -0.2059    0.0376 C   0  0  0  0  0  0  0  0  0  0  0  0
   -3.5428    0.6588   -0.2648 C   0  0  0  0  0  0  0  0  0  0  0  0
   -4.7126   -0.0200    0.0247 C   0  0  0  0  0  0  0  0  0  0  0  0
   -4.4444   -1.2506    0.4865 N   0  0  0  0  0  0  0  0  0  0  0  0
   -3.0932   -1.3764    0.4988 C   0  0  0  0  0  0  0  0  0  0  0  0
   -6.0623    0.5187   -0.1449 C   0  0  0  0  0  0  0  0  0  0  0  0
   -7.2356   -0.1486    0.1403 C   0  0  0  0  0  0  0  0  0  0  0  0
   -8.2547    0.7394   -0.1710 C   0  0  0  0  0  0  0  0  0  0  0  0
   -7.7423    1.8969   -0.6255 N   0  0  0  0  0  0  0  0  0  0  0  0
   -6.3882    1.7826   -0.6177 C   0  0  0  0  0  0  0  0  0  0  0  0
    9.3443   -0.7724   -0.0586 H   0  0  0  0  0  0  0  0  0  0  0  0
    7.1340   -2.1905    0.5399 H   0  0  0  0  0  0  0  0  0  0  0  0
    6.0115    1.6924   -0.9097 H   0  0  0  0  0  0  0  0  0  0  0  0
    8.5875    1.5676   -0.9300 H   0  0  0  0  0  0  0  0  0  0  0  0
    3.6500    1.1774   -0.6515 H   0  0  0  0  0  0  0  0  0  0  0  0
    2.1444   -2.5077    0.7918 H   0  0  0  0  0  0  0  0  0  0  0  0
    4.7696   -2.7247    0.8056 H   0  0  0  0  0  0  0  0  0  0  0  0
   -0.0600   -1.7477    0.5605 H   0  0  0  0  0  0  0  0  0  0  0  0
   -1.1666    2.0773   -0.8679 H   0  0  0  0  0  0  0  0  0  0  0  0
    1.4351    1.9911   -0.9035 H   0  0  0  0  0  0  0  0  0  0  0  0
   -3.4094    1.6436   -0.6435 H   0  0  0  0  0  0  0  0  0  0  0  0
   -5.1539   -1.9477    0.7709 H   0  0  0  0  0  0  0  0  0  0  0  0
   -2.5798   -2.2913    0.8338 H   0  0  0  0  0  0  0  0  0  0  0  0
   -7.3666   -1.1551    0.5271 H   0  0  0  0  0  0  0  0  0  0  0  0
   -9.3329    0.5922   -0.0865 H   0  0  0  0  0  0  0  0  0  0  0  0
   -8.2828    2.7556   -0.9382 H   0  0  0  0  0  0  0  0  0  0  0  0
   -5.7194    2.5599   -0.9314 H   0  0  0  0  0  0  0  0  0  0  0  0
  1  2  1  0
  2  3  2  0
  3  4  1  0
  4  5  1  0
  3  6  1  0
  6  7  1  0
  7  8  2  0
  8  9  1  0
  9 10  1  0
  8 11  1  0
 11 12  1  0
 12 13  2  0
 13 14  1  0
 14 15  1  0
 13 16  1  0
 16 17  1  0
 17 18  2  0
 18 19  1  0
 19 20  1  0
 18 21  1  0
 21 22  1  0
 22 23  2  0
 23 24  1  0
 24 25  1  0
  5  1  2  0
 10  6  2  0
 15 11  2  0
 20 16  2  0
 25 21  2  0
  1 26  1  0
  2 27  1  0
  4 28  1  0
  5 29  1  0
  7 30  1  0
  9 31  1  0
 10 32  1  0
 12 33  1  0
 14 34  1  0
 15 35  1  0
 17 36  1  0
 19 37  1  0
 20 38  1  0
 22 39  1  0
 23 40  1  0
 24 41  1  0
 25 42  1  0
M  END
$$$$
