PVI
     RDKit          3D

 44 46  0  0  0  0  0  0  0  0999 V2000
    1.1811   -2.1995   -0.6190 C   0  0  0  0  0  0  0  0  0  0  0  0
    1.6035   -1.3272    0.5459 C   0  0  1  0  0  0  0  0  0  0  0  0
    3.0122   -1.5815    0.7824 N   0  0  0  0  0  0  0  0  0  0  0  0
    3.6019   -1.5937    2.0125 C   0  0  0  0  0  0  0  0  0  0  0  0
    4.9588   -1.8708    1.8544 C   0  0  0  0  0  0  0  0  0  0  0  0
    5.1556   -2.0190    0.5344 N   0  0  0  0  0  0  0  0  0  0  0  0
    3.9942   -1.8455   -0.0940 C   0  0  0  0  0  0  0  0  0  0  0  0
    1.4621    0.1270    0.1753 C   0  0  0  0  0  0  0  0  0  0  0  0
    0.0709    0.5340   -0.1876 C   0  0  2  0  0  0  0  0  0  0  0  0
    0.1070    1.9366   -0.5119 N   0  0  0  0  0  0  0  0  0  0  0  0
   -0.1028    2.9233    0.3512 C   0  0  0  0  0  0  0  0  0  0  0  0
   -0.0027    4.1607   -0.2517 C   0  0  0  0  0  0  0  0  0  0  0  0
    0.2846    3.8764   -1.5530 N   0  0  0  0  0  0  0  0  0  0  0  0
    0.3505    2.5364   -1.7090 C   0  0  0  0  0  0  0  0  0  0  0  0
   -0.9384    0.1807    0.8458 C   0  0  0  0  0  0  0  0  0  0  0  0
   -2.3449    0.5860    0.4910 C   0  0  1  0  0  0  0  0  0  0  0  0
   -2.8122   -0.0365   -0.7330 N   0  0  0  0  0  0  0  0  0  0  0  0
   -2.9222    0.5252   -1.9654 C   0  0  0  0  0  0  0  0  0  0  0  0
   -3.4129   -0.4821   -2.7797 C   0  0  0  0  0  0  0  0  0  0  0  0
   -3.5785   -1.5761   -2.0494 N   0  0  0  0  0  0  0  0  0  0  0  0
   -3.2186   -1.3317   -0.7933 C   0  0  0  0  0  0  0  0  0  0  0  0
   -3.3003    0.2528    1.6175 C   0  0  0  0  0  0  0  0  0  0  0  0
    0.1300   -2.0534   -0.9171 H   0  0  0  0  0  0  0  0  0  0  0  0
    1.4289   -3.2598   -0.3969 H   0  0  0  0  0  0  0  0  0  0  0  0
    1.8289   -1.8876   -1.4835 H   0  0  0  0  0  0  0  0  0  0  0  0
    0.9846   -1.6001    1.4038 H   0  0  0  0  0  0  0  0  0  0  0  0
    3.1448   -1.4252    2.9674 H   0  0  0  0  0  0  0  0  0  0  0  0
    5.7272   -1.9576    2.6067 H   0  0  0  0  0  0  0  0  0  0  0  0
    3.8660   -1.9103   -1.1713 H   0  0  0  0  0  0  0  0  0  0  0  0
    2.0924    0.2881   -0.7419 H   0  0  0  0  0  0  0  0  0  0  0  0
    1.8528    0.7893    0.9647 H   0  0  0  0  0  0  0  0  0  0  0  0
   -0.1830   -0.0144   -1.1420 H   0  0  0  0  0  0  0  0  0  0  0  0
   -0.3270    2.7893    1.4068 H   0  0  0  0  0  0  0  0  0  0  0  0
   -0.1239    5.1476    0.2006 H   0  0  0  0  0  0  0  0  0  0  0  0
    0.5655    2.0040   -2.6474 H   0  0  0  0  0  0  0  0  0  0  0  0
   -0.9079   -0.9019    1.0454 H   0  0  0  0  0  0  0  0  0  0  0  0
   -0.6734    0.7095    1.7778 H   0  0  0  0  0  0  0  0  0  0  0  0
   -2.3189    1.7016    0.3607 H   0  0  0  0  0  0  0  0  0  0  0  0
   -2.6693    1.5510   -2.2208 H   0  0  0  0  0  0  0  0  0  0  0  0
   -3.6067   -0.3295   -3.8345 H   0  0  0  0  0  0  0  0  0  0  0  0
   -3.2454   -2.0472    0.0429 H   0  0  0  0  0  0  0  0  0  0  0  0
   -4.1395    0.9981    1.6671 H   0  0  0  0  0  0  0  0  0  0  0  0
   -3.7802   -0.7254    1.5338 H   0  0  0  0  0  0  0  0  0  0  0  0
   -2.7949    0.3582    2.6145 H   0  0  0  0  0  0  0  0  0  0  0  0
  1  2  1  0
  2  3  1  0
  3  4  1  0
  4  5  2  0
  5  6  1  0
  6  7  2  0
  2  8  1  0
  8  9  1  0
  9 10  1  0
 10 11  1  0
 11 12  2  0
 12 13  1  0
 13 14  2  0
  9 15  1  0
 15 16  1  0
 16 17  1  0
 17 18  1  0
 18 19  2  0
 19 20  1  0
 20 21  2  0
 16 22  1  0
  7  3  1  0
 14 10  1  0
 21 17  1  0
  1 23  1  0
  1 24  1  0
  1 25  1  0
  2 26  1  1
  4 27  1  0
  5 28  1  0
  7 29  1  0
  8 30  1  0
  8 31  1  0
  9 32  1  6
 11 33  1  0
 12 34  1  0
 14 35  1  0
 15 36  1  0
 15 37  1  0
 16 38  1  6
 18 39  1  0
 19 40  1  0
 21 41  1  0
 22 42  1  0
 22 43  1  0
 22 44  1  0
M  END
$$$$
