PVI
     RDKit          3D

 44 46  0  0  0  0  0  0  0  0999 V2000
    2.5178   -1.5286    2.1469 C   0  0  0  0  0  0  0  0  0  0  0  0
    2.2344   -0.6360    0.9531 C   0  0  1  0  0  0  0  0  0  0  0  0
    3.0021   -1.1044   -0.2033 C   0  0  0  0  0  0  0  0  0  0  0  0
    2.8602   -2.3148   -0.8054 N   0  0  0  0  0  0  0  0  0  0  0  0
    3.7326   -2.3865   -1.8297 C   0  0  0  0  0  0  0  0  0  0  0  0
    4.4418   -1.2032   -1.8814 C   0  0  0  0  0  0  0  0  0  0  0  0
    3.9718   -0.4403   -0.8738 N   0  0  0  0  0  0  0  0  0  0  0  0
    0.7295   -0.6869    0.7384 C   0  0  0  0  0  0  0  0  0  0  0  0
    0.2717    0.1337   -0.3957 C   0  0  2  0  0  0  0  0  0  0  0  0
    0.6060    1.5791   -0.2273 C   0  0  0  0  0  0  0  0  0  0  0  0
    1.2792    2.3337   -1.1319 N   0  0  0  0  0  0  0  0  0  0  0  0
    1.4114    3.5986   -0.6560 C   0  0  0  0  0  0  0  0  0  0  0  0
    0.8072    3.6361    0.5742 C   0  0  0  0  0  0  0  0  0  0  0  0
    0.3312    2.3992    0.8024 N   0  0  0  0  0  0  0  0  0  0  0  0
   -1.1815   -0.0036   -0.6864 C   0  0  0  0  0  0  0  0  0  0  0  0
   -2.1706    0.3726    0.3451 C   0  0  1  0  0  0  0  0  0  0  0  0
   -3.5318    0.1286   -0.3069 C   0  0  0  0  0  0  0  0  0  0  0  0
   -4.4640    1.0701   -0.4960 N   0  0  0  0  0  0  0  0  0  0  0  0
   -5.5526    0.5203   -1.0998 C   0  0  0  0  0  0  0  0  0  0  0  0
   -5.2251   -0.8050   -1.2643 C   0  0  0  0  0  0  0  0  0  0  0  0
   -3.9827   -1.0507   -0.7779 N   0  0  0  0  0  0  0  0  0  0  0  0
   -2.2166   -0.4704    1.5915 C   0  0  0  0  0  0  0  0  0  0  0  0
    1.8862   -2.4524    2.1403 H   0  0  0  0  0  0  0  0  0  0  0  0
    2.3288   -0.9877    3.1075 H   0  0  0  0  0  0  0  0  0  0  0  0
    3.5621   -1.8888    2.1815 H   0  0  0  0  0  0  0  0  0  0  0  0
    2.5575    0.3762    1.2278 H   0  0  0  0  0  0  0  0  0  0  0  0
    3.8931   -3.2124   -2.5294 H   0  0  0  0  0  0  0  0  0  0  0  0
    5.2181   -0.8810   -2.5500 H   0  0  0  0  0  0  0  0  0  0  0  0
    4.2854    0.5354   -0.6120 H   0  0  0  0  0  0  0  0  0  0  0  0
    0.3101   -0.2857    1.6775 H   0  0  0  0  0  0  0  0  0  0  0  0
    0.4327   -1.7317    0.6342 H   0  0  0  0  0  0  0  0  0  0  0  0
    0.7794   -0.1412   -1.3717 H   0  0  0  0  0  0  0  0  0  0  0  0
    1.9175    4.3758   -1.2132 H   0  0  0  0  0  0  0  0  0  0  0  0
    0.7390    4.5133    1.2238 H   0  0  0  0  0  0  0  0  0  0  0  0
   -0.1784    2.1441    1.6758 H   0  0  0  0  0  0  0  0  0  0  0  0
   -1.3684    0.6796   -1.5817 H   0  0  0  0  0  0  0  0  0  0  0  0
   -1.4114   -1.0287   -1.0853 H   0  0  0  0  0  0  0  0  0  0  0  0
   -2.1891    1.4544    0.5881 H   0  0  0  0  0  0  0  0  0  0  0  0
   -6.4772    1.0202   -1.3881 H   0  0  0  0  0  0  0  0  0  0  0  0
   -5.8304   -1.5818   -1.7094 H   0  0  0  0  0  0  0  0  0  0  0  0
   -3.4503   -1.9489   -0.7536 H   0  0  0  0  0  0  0  0  0  0  0  0
   -3.2919   -0.7026    1.8826 H   0  0  0  0  0  0  0  0  0  0  0  0
   -1.8383    0.0590    2.4952 H   0  0  0  0  0  0  0  0  0  0  0  0
   -1.7466   -1.4567    1.4444 H   0  0  0  0  0  0  0  0  0  0  0  0
  1  2  1  0
  2  3  1  0
  3  4  2  0
  4  5  1  0
  5  6  2  0
  6  7  1  0
  2  8  1  0
  8  9  1  0
  9 10  1  0
 10 11  2  0
 11 12  1  0
 12 13  2  0
 13 14  1  0
  9 15  1  0
 15 16  1  0
 16 17  1  0
 17 18  2  0
 18 19  1  0
 19 20  2  0
 20 21  1  0
 16 22  1  0
  7  3  1  0
 14 10  1  0
 21 17  1  0
  1 23  1  0
  1 24  1  0
  1 25  1  0
  2 26  1  1
  5 27  1  0
  6 28  1  0
  7 29  1  0
  8 30  1  0
  8 31  1  0
  9 32  1  6
 12 33  1  0
 13 34  1  0
 14 35  1  0
 15 36  1  0
 15 37  1  0
 16 38  1  1
 19 39  1  0
 20 40  1  0
 21 41  1  0
 22 42  1  0
 22 43  1  0
 22 44  1  0
M  END
$$$$
