SBM
     RDKit          3D

 39 38  0  0  0  0  0  0  0  0999 V2000
    5.1120   -2.4333    0.2924 C   0  0  0  0  0  0  0  0  0  0  0  0
    4.7101   -1.2513   -0.1553 C   0  0  0  0  0  0  0  0  0  0  0  0
    5.6830   -0.1753   -0.4807 C   0  0  0  0  0  0  0  0  0  0  0  0
    3.2669   -0.9880   -0.3382 C   0  0  0  0  0  0  0  0  0  0  0  0
    2.4456   -1.9014   -0.0617 O   0  0  0  0  0  0  0  0  0  0  0  0
    2.8303    0.2189   -0.7970 O   0  0  0  0  0  0  0  0  0  0  0  0
    1.4846    0.6050   -1.0178 C   0  0  0  0  0  0  0  0  0  0  0  0
    0.6386    0.5492    0.2124 C   0  0  0  0  0  0  0  0  0  0  0  0
   -0.7208    0.9174    0.0891 N   0  0  0  0  0  0  0  0  0  0  0  0
   -1.0567    1.7109   -1.0534 C   0  0  0  0  0  0  0  0  0  0  0  0
   -1.0515    1.7362    1.2630 C   0  0  0  0  0  0  0  0  0  0  0  0
   -1.6136   -0.2524    0.0827 C   0  0  0  0  0  0  0  0  0  0  0  0
   -3.0367    0.1324   -0.1336 C   0  0  0  0  0  0  0  0  0  0  0  0
   -3.9172   -1.1254   -0.1303 C   0  0  0  0  0  0  0  0  0  0  0  0
   -5.6215   -0.6597   -0.3900 S   0  0  0  0  0  6  0  0  0  0  0  0
   -6.5461   -2.0445   -0.3806 O   0  0  0  0  0  0  0  0  0  0  0  0
   -5.6965    0.0942   -1.6863 O   0  0  0  0  0  0  0  0  0  0  0  0
   -6.0991    0.2501    0.7014 O   0  0  0  0  0  0  0  0  0  0  0  0
    6.1881   -2.5531    0.4014 H   0  0  0  0  0  0  0  0  0  0  0  0
    4.3936   -3.1885    0.5186 H   0  0  0  0  0  0  0  0  0  0  0  0
    5.4054    0.7808    0.0063 H   0  0  0  0  0  0  0  0  0  0  0  0
    5.7479   -0.0889   -1.6003 H   0  0  0  0  0  0  0  0  0  0  0  0
    6.6673   -0.4852   -0.0770 H   0  0  0  0  0  0  0  0  0  0  0  0
    1.0957   -0.1360   -1.7663 H   0  0  0  0  0  0  0  0  0  0  0  0
    1.5436    1.5988   -1.4855 H   0  0  0  0  0  0  0  0  0  0  0  0
    0.6691   -0.5156    0.5676 H   0  0  0  0  0  0  0  0  0  0  0  0
    1.1769    1.1179    0.9983 H   0  0  0  0  0  0  0  0  0  0  0  0
   -1.9701    2.2911   -0.8018 H   0  0  0  0  0  0  0  0  0  0  0  0
   -0.2817    2.4816   -1.2276 H   0  0  0  0  0  0  0  0  0  0  0  0
   -1.3179    1.1399   -1.9555 H   0  0  0  0  0  0  0  0  0  0  0  0
   -1.8958    2.4050    1.0430 H   0  0  0  0  0  0  0  0  0  0  0  0
   -1.1693    1.1185    2.1651 H   0  0  0  0  0  0  0  0  0  0  0  0
   -0.1606    2.3811    1.4326 H   0  0  0  0  0  0  0  0  0  0  0  0
   -1.4799   -0.8784    0.9682 H   0  0  0  0  0  0  0  0  0  0  0  0
   -1.3031   -0.8456   -0.8088 H   0  0  0  0  0  0  0  0  0  0  0  0
   -3.1580    0.6603   -1.1007 H   0  0  0  0  0  0  0  0  0  0  0  0
   -3.4601    0.7997    0.6372 H   0  0  0  0  0  0  0  0  0  0  0  0
   -3.6376   -1.8311   -0.9142 H   0  0  0  0  0  0  0  0  0  0  0  0
   -3.8646   -1.6355    0.8492 H   0  0  0  0  0  0  0  0  0  0  0  0
  1  2  2  0
  2  3  1  0
  2  4  1  0
  4  5  2  0
  4  6  1  0
  6  7  1  0
  7  8  1  0
  8  9  1  0
  9 10  1  0
  9 11  1  0
  9 12  1  0
 12 13  1  0
 13 14  1  0
 14 15  1  0
 15 16  1  0
 15 17  2  0
 15 18  2  0
  1 19  1  0
  1 20  1  0
  3 21  1  0
  3 22  1  0
  3 23  1  0
  7 24  1  0
  7 25  1  0
  8 26  1  0
  8 27  1  0
 10 28  1  0
 10 29  1  0
 10 30  1  0
 11 31  1  0
 11 32  1  0
 11 33  1  0
 12 34  1  0
 12 35  1  0
 13 36  1  0
 13 37  1  0
 14 38  1  0
 14 39  1  0
M  CHG  2   9   1  16  -1
M  END
$$$$
